*Heading
** Job name: Con03_Mid Model name: Model-1
** Generated by: Abaqus/CAE 6.14-1
*Preprint, echo=NO, model=NO, history=NO, contact=NO
**
** PARTS
**
*Part, name=Bottom
*Node
      1,  -1.79999995,           0.,  0.600000024
      2,  -1.79999995,  0.245256007,  0.600000024
      3,  -1.79999995,  0.200000003,           0.
      4,  -1.79999995,           0.,           0.
      5,           0.,  0.245256007,  0.600000024
      6,           0.,  0.200000003,           0.
      7,           0.,           0.,           0.
      8,           0.,           0.,  0.600000024
      9,  -1.79999995,           0.,   1.20000005
     10,  -1.79999995,  0.200000003,   1.20000005
     11,           0.,           0.,   1.20000005
     12,           0.,  0.200000003,   1.20000005
     13,  -1.79999995,  0.035036575,  0.600000024
     14,  -1.79999995, 0.0700731501,  0.600000024
     15,  -1.79999995,  0.105109721,  0.600000024
     16,  -1.79999995,    0.1401463,  0.600000024
     17,  -1.79999995,  0.175182864,  0.600000024
     18,  -1.79999995,  0.210219443,  0.600000024
     19,  -1.79999995,  0.245142654,  0.569886625
     20,  -1.79999995,  0.244802609,  0.539774954
** ... 19988 like lines cut
*Element, type=C3D8R
   1,   230,  3025,  6557,   783,     1,    13,   555,    62
   2,  3025,  3026,  6558,  6557,    13,    14,   556,   555
   3,  3026,  3027,  6559,  6558,    14,    15,   557,   556
   4,  3027,  3028,  6560,  6559,    15,    16,   558,   557
   5,  3028,  3029,  6561,  6560,    16,    17,   559,   558
   6,  3029,  3030,  6562,  6561,    17,    18,   560,   559
   7,  3030,   290,  1904,  6562,    18,     2,    19,   560
   8,   783,  6557,  6563,   784,    62,   555,   561,    61
   9,  6557,  6558,  6564,  6563,   555,   556,   562,   561
  10,  6558,  6559,  6565,  6564,   556,   557,   563,   562
  11,  6559,  6560,  6566,  6565,   557,   558,   564,   563
  12,  6560,  6561,  6567,  6566,   558,   559,   565,   564
  13,  6561,  6562,  6568,  6567,   559,   560,   566,   565
  14,  6562,  1904,  1905,  6568,   560,    19,    20,   566
  15,   784,  6563,  6569,   785,    61,   561,   567,    60
  16,  6563,  6564,  6570,  6569,   561,   562,   568,   567
  17,  6564,  6565,  6571,  6570,   562,   563,   569,   568
  18,  6565,  6566,  6572,  6571,   563,   564,   570,   569
  19,  6566,  6567,  6573,  6572,   564,   565,   571,   570
  20,  6567,  6568,  6574,  6573,   565,   566,   572,   571
** ... 16780 like lines cut
*Nset, nset=_PickedSet10, internal, generate
     1,  20008,      1
*Elset, elset=_PickedSet10, internal, generate
     1,  16800,      1
** Section: Section-1
*Solid Section, elset=_PickedSet10, material=Material-1
,
*End Part
**  
*Part, name=Left
*Node
      1, -0.300000012,  0.200000003,   1.20000005
      2, -0.300000012,  0.219778448,   1.05074537
      3, -0.300000012,  0.233925968,  0.900852144
      4, -0.300000012,  0.242422491,  0.750532746
      5, -0.300000012,  0.245256007,  0.600000024
      6, -0.300000012,  0.242422491,  0.449467272
      7, -0.300000012,  0.233925968,  0.299147844
      8, -0.300000012,  0.219778448,   0.14925462
      9, -0.300000012,  0.200000003,           0.
     10, -0.300000012,           0.,   1.20000005
     11, -0.300000012,           0.,   1.04999995
     12, -0.300000012,           0.,  0.899999976
     13, -0.300000012,           0.,         0.75
     14, -0.300000012,           0.,  0.600000024
     15, -0.300000012,           0.,  0.449999988
     16, -0.300000012,           0.,  0.300000012
     17, -0.300000012,           0.,  0.150000006
     18, -0.300000012,           0.,           0.
     19, -0.150000006,  0.200000003,   1.20000005
     20, -0.150000006,  0.219778448,   1.05074537
** ... 34 like lines cut
*Element, type=C3D8R
 1, 19, 20, 29, 28,  1,  2, 11, 10
 2, 20, 21, 30, 29,  2,  3, 12, 11
 3, 21, 22, 31, 30,  3,  4, 13, 12
 4, 22, 23, 32, 31,  4,  5, 14, 13
 5, 23, 24, 33, 32,  5,  6, 15, 14
 6, 24, 25, 34, 33,  6,  7, 16, 15
 7, 25, 26, 35, 34,  7,  8, 17, 16
 8, 26, 27, 36, 35,  8,  9, 18, 17
 9, 37, 38, 47, 46, 19, 20, 29, 28
10, 38, 39, 48, 47, 20, 21, 30, 29
11, 39, 40, 49, 48, 21, 22, 31, 30
12, 40, 41, 50, 49, 22, 23, 32, 31
13, 41, 42, 51, 50, 23, 24, 33, 32
14, 42, 43, 52, 51, 24, 25, 34, 33
15, 43, 44, 53, 52, 25, 26, 35, 34
16, 44, 45, 54, 53, 26, 27, 36, 35
*Nset, nset=_PickedSet4, internal, generate
  1,  54,   1
*Elset, elset=_PickedSet4, internal, generate
  1,  16,   1
** Section: Section-1
*Solid Section, elset=_PickedSet4, material=Material-1
,
*End Part
**  
*Part, name=Right
*Node
      1, -0.300000012,  0.200000003,   1.20000005
      2, -0.300000012,  0.219778448,   1.05074537
      3, -0.300000012,  0.233925968,  0.900852144
      4, -0.300000012,  0.242422491,  0.750532746
      5, -0.300000012,  0.245256007,  0.600000024
      6, -0.300000012,  0.242422491,  0.449467272
      7, -0.300000012,  0.233925968,  0.299147844
      8, -0.300000012,  0.219778448,   0.14925462
      9, -0.300000012,  0.200000003,           0.
     10, -0.300000012,           0.,   1.20000005
     11, -0.300000012,           0.,   1.04999995
     12, -0.300000012,           0.,  0.899999976
     13, -0.300000012,           0.,         0.75
     14, -0.300000012,           0.,  0.600000024
     15, -0.300000012,           0.,  0.449999988
     16, -0.300000012,           0.,  0.300000012
     17, -0.300000012,           0.,  0.150000006
     18, -0.300000012,           0.,           0.
     19, -0.150000006,  0.200000003,   1.20000005
     20, -0.150000006,  0.219778448,   1.05074537
** ... 34 like lines cut
*Element, type=C3D8R
 1, 19, 20, 29, 28,  1,  2, 11, 10
 2, 20, 21, 30, 29,  2,  3, 12, 11
 3, 21, 22, 31, 30,  3,  4, 13, 12
 4, 22, 23, 32, 31,  4,  5, 14, 13
 5, 23, 24, 33, 32,  5,  6, 15, 14
 6, 24, 25, 34, 33,  6,  7, 16, 15
 7, 25, 26, 35, 34,  7,  8, 17, 16
 8, 26, 27, 36, 35,  8,  9, 18, 17
 9, 37, 38, 47, 46, 19, 20, 29, 28
10, 38, 39, 48, 47, 20, 21, 30, 29
11, 39, 40, 49, 48, 21, 22, 31, 30
12, 40, 41, 50, 49, 22, 23, 32, 31
13, 41, 42, 51, 50, 23, 24, 33, 32
14, 42, 43, 52, 51, 24, 25, 34, 33
15, 43, 44, 53, 52, 25, 26, 35, 34
16, 44, 45, 54, 53, 26, 27, 36, 35
*Nset, nset=_PickedSet4, internal, generate
  1,  54,   1
*Elset, elset=_PickedSet4, internal, generate
  1,  16,   1
** Section: Section-1
*Solid Section, elset=_PickedSet4, material=Material-1
,
*End Part
**  
*Part, name=SideWalls
*Node
      1,           0.,  0.955072939,   1.85000002
      2,           0.,   1.15507293,   1.85000002
      3,           0.,   1.09113395,   2.17824388
      4,           0.,           1.,          2.5
      5,           0.,           0.,          2.5
      6,           0.,           0.,           0.
      7,           0.,           1.,           0.
      8,           0.,   1.09113395,  0.321756005
      9,           0.,   1.15507293,  0.649999976
     10,           0.,  0.955072939,  0.649999976
     11,           0.,    1.0550729,   1.85000002
     12,           0.,          0.5,          2.5
     13,           0.,           0.,          0.5
     14,           0.,           0.,           1.
     15,           0.,           0.,          1.5
     16,           0.,           0.,           2.
     17,           0.,          0.5,           0.
     18,           0.,  0.955072939,         1.25
     19,           0.,   1.00161958,   2.02169561
     20,           0.,  0.878868937,   2.00025129
** ... 160 like lines cut
*Element, type=C3D8R
  1,   1,  20,  19,  11,  31,  50,  49,  41
  2,  19,  20,  21,   3,  49,  50,  51,  33
  3,  27,  26,  24,  25,  57,  56,  54,  55
  4,  29,   8,   7,  17,  59,  38,  37,  47
  5,  29,  10,   9,   8,  59,  40,  39,  38
  6,  10,  29,  17,  23,  40,  59,  47,  53
  7,  11,  19,   3,   2,  41,  49,  33,  32
  8,  12,  26,  16,   5,  42,  56,  46,  35
  9,  23,  17,   6,  13,  53,  47,  36,  43
 10,  28,  23,  13,  14,  58,  53,  43,  44
 11,  12,  21,  24,  26,  42,  51,  54,  56
 12,  18,  25,  22,   1,  48,  55,  52,  31
 13,  12,   4,   3,  21,  42,  34,  33,  51
 14,  22,  30,  20,   1,  52,  60,  50,  31
 15,  16,  26,  27,  15,  46,  56,  57,  45
 16,  28,  18,  10,  23,  58,  48,  40,  53
 17,  14,  15,  27,  28,  44,  45,  57,  58
 18,  25,  18,  28,  27,  55,  48,  58,  57
 19,  30,  22,  25,  24,  60,  52,  55,  54
 20,  20,  30,  24,  21,  50,  60,  54,  51
** ... 80 like lines cut
*Nset, nset=_PickedSet5, internal, generate
   1,  180,    1
*Elset, elset=_PickedSet5, internal, generate
   1,  100,    1
** Section: Section-1
*Solid Section, elset=_PickedSet5, material=Material-1
,
*End Part
**  
*Part, name=Up
*End Part
**  
**
** ASSEMBLY
**
*Assembly, name=Assembly
**  
*Instance, name=Bottom-1, part=Bottom
*End Instance
**  
*Instance, name=Left-1, part=Left
0.300000003278255,           0.,           0.
*End Instance
**  
*Instance, name=Right-1, part=Right
-1.79999999344349,           0.,           0.
*End Instance
**  
*Instance, name=SideWalls-1, part=SideWalls
0.30000000327825,    -0.955073,        -0.65
*End Instance
**  
*Instance, name=Up-1, part=Up
        -1.3, -8.00474399328232,          0.6
*Node
      1,   1.93649173,         8.75,         0.75
*Nset, nset=Up-1-RefPt_, internal
1, 
*Surface, type=CYLINDER, name=RigidSurface_, internal
START, 1.93649167311142, 8.75000000000427
 CIRCL,           0., 8.24999999999512,           0.,        12.25
 CIRCL, -1.93649167311378,         8.75,           0.,        12.25
*Rigid Body, ref node=Up-1-RefPt_, analytical surface=RigidSurface_
*End Instance
**  
*Nset, nset=_PickedSet22, internal, instance=Up-1
 1,
*Nset, nset=_PickedSet23, internal, instance=Up-1
 1,
*Nset, nset=_PickedSet24, internal, instance=Up-1
 1,
*Nset, nset=_PickedSet25, internal, instance=SideWalls-1
   5,   6,  13,  14,  15,  16,  35,  36,  43,  44,  45,  46,  65,  66,  73,  74
  75,  76,  95,  96, 103, 104, 105, 106, 125, 126, 133, 134, 135, 136, 155, 156
 163, 164, 165, 166
*Elset, elset=_PickedSet25, internal, instance=SideWalls-1
  8,  9, 10, 15, 17, 28, 29, 30, 35, 37, 48, 49, 50, 55, 57, 68
 69, 70, 75, 77, 88, 89, 90, 95, 97
*Nset, nset=_PickedSet26, internal, instance=Up-1
 1,
*Elset, elset=__PickedSurf123_S6, internal, instance=SideWalls-1
  1,  7, 12, 21, 27, 32, 41, 47, 52, 61, 67, 72, 81, 87, 92
*Elset, elset=__PickedSurf123_S4, internal, instance=SideWalls-1
  5, 16, 25, 36, 45, 56, 65, 76, 85, 96
*Surface, type=ELEMENT, name=_PickedSurf123, internal
__PickedSurf123_S6, S6
__PickedSurf123_S4, S4
*Elset, elset=__PickedSurf124_S6, internal, instance=Bottom-1, generate
    1,  8394,     7
*Elset, elset=__PickedSurf124_S6, internal, instance=Left-1
 1, 9
*Elset, elset=__PickedSurf124_S6, internal, instance=Right-1
 1, 9
*Elset, elset=__PickedSurf124_S5, internal, instance=Bottom-1
   134,   135,   136,   137,   138,   139,   140,   274,   275,   276,   277,   278,   279,   280,   414,   415
   416,   417,   418,   419,   420,   554,   555,   556,   557,   558,   559,   560,   694,   695,   696,   697
   698,   699,   700,   834,   835,   836,   837,   838,   839,   840,   974,   975,   976,   977,   978,   979
   980,  1114,  1115,  1116,  1117,  1118,  1119,  1120,  1254,  1255,  1256,  1257,  1258,  1259,  1260,  1394
  1395,  1396,  1397,  1398,  1399,  1400,  1534,  1535,  1536,  1537,  1538,  1539,  1540,  1674,  1675,  1676
  1677,  1678,  1679,  1680,  1814,  1815,  1816,  1817,  1818,  1819,  1820,  1954,  1955,  1956,  1957,  1958
  1959,  1960,  2094,  2095,  2096,  2097,  2098,  2099,  2100,  2234,  2235,  2236,  2237,  2238,  2239,  2240
  2374,  2375,  2376,  2377,  2378,  2379,  2380,  2514,  2515,  2516,  2517,  2518,  2519,  2520,  2654,  2655
  2656,  2657,  2658,  2659,  2660,  2794,  2795,  2796,  2797,  2798,  2799,  2800,  2934,  2935,  2936,  2937
  2938,  2939,  2940,  3074,  3075,  3076,  3077,  3078,  3079,  3080,  3214,  3215,  3216,  3217,  3218,  3219
  3220,  3354,  3355,  3356,  3357,  3358,  3359,  3360,  3494,  3495,  3496,  3497,  3498,  3499,  3500,  3634
  3635,  3636,  3637,  3638,  3639,  3640,  3774,  3775,  3776,  3777,  3778,  3779,  3780,  3914,  3915,  3916
  3917,  3918,  3919,  3920,  4054,  4055,  4056,  4057,  4058,  4059,  4060,  4194,  4195,  4196,  4197,  4198
  4199,  4200,  4334,  4335,  4336,  4337,  4338,  4339,  4340,  4474,  4475,  4476,  4477,  4478,  4479,  4480
  4614,  4615,  4616,  4617,  4618,  4619,  4620,  4754,  4755,  4756,  4757,  4758,  4759,  4760,  4894,  4895
  4896,  4897,  4898,  4899,  4900,  5034,  5035,  5036,  5037,  5038,  5039,  5040,  5174,  5175,  5176,  5177
  5178,  5179,  5180,  5314,  5315,  5316,  5317,  5318,  5319,  5320,  5454,  5455,  5456,  5457,  5458,  5459
  5460,  5594,  5595,  5596,  5597,  5598,  5599,  5600,  5734,  5735,  5736,  5737,  5738,  5739,  5740,  5874
  5875,  5876,  5877,  5878,  5879,  5880,  6014,  6015,  6016,  6017,  6018,  6019,  6020,  6154,  6155,  6156
  6157,  6158,  6159,  6160,  6294,  6295,  6296,  6297,  6298,  6299,  6300,  6434,  6435,  6436,  6437,  6438
** ... 33 like lines cut
*Elset, elset=__PickedSurf124_S5, internal, instance=Left-1, generate
  1,  16,   1
*Elset, elset=__PickedSurf124_S5, internal, instance=Right-1, generate
  1,  16,   1
*Elset, elset=__PickedSurf124_S4, internal, instance=Bottom-1, generate
  8407,  16800,      7
*Elset, elset=__PickedSurf124_S4, internal, instance=Left-1
  8, 16
*Elset, elset=__PickedSurf124_S4, internal, instance=Right-1
  8, 16
*Surface, type=ELEMENT, name=_PickedSurf124, internal
__PickedSurf124_S6, S6
__PickedSurf124_S5, S5
__PickedSurf124_S4, S4
*Elset, elset=__PickedSurf142_S1, internal, instance=Bottom-1
  8261,  8262,  8263,  8264,  8265,  8266,  8267,  8268,  8269,  8270,  8271,  8272,  8273,  8274,  8275,  8276
  8277,  8278,  8279,  8280,  8281,  8282,  8283,  8284,  8285,  8286,  8287,  8288,  8289,  8290,  8291,  8292
  8293,  8294,  8295,  8296,  8297,  8298,  8299,  8300,  8301,  8302,  8303,  8304,  8305,  8306,  8307,  8308
  8309,  8310,  8311,  8312,  8313,  8314,  8315,  8316,  8317,  8318,  8319,  8320,  8321,  8322,  8323,  8324
  8325,  8326,  8327,  8328,  8329,  8330,  8331,  8332,  8333,  8334,  8335,  8336,  8337,  8338,  8339,  8340
  8341,  8342,  8343,  8344,  8345,  8346,  8347,  8348,  8349,  8350,  8351,  8352,  8353,  8354,  8355,  8356
  8357,  8358,  8359,  8360,  8361,  8362,  8363,  8364,  8365,  8366,  8367,  8368,  8369,  8370,  8371,  8372
  8373,  8374,  8375,  8376,  8377,  8378,  8379,  8380,  8381,  8382,  8383,  8384,  8385,  8386,  8387,  8388
  8389,  8390,  8391,  8392,  8393,  8394,  8395,  8396,  8397,  8398,  8399,  8400, 16661, 16662, 16663, 16664
 16665, 16666, 16667, 16668, 16669, 16670, 16671, 16672, 16673, 16674, 16675, 16676, 16677, 16678, 16679, 16680
 16681, 16682, 16683, 16684, 16685, 16686, 16687, 16688, 16689, 16690, 16691, 16692, 16693, 16694, 16695, 16696
 16697, 16698, 16699, 16700, 16701, 16702, 16703, 16704, 16705, 16706, 16707, 16708, 16709, 16710, 16711, 16712
 16713, 16714, 16715, 16716, 16717, 16718, 16719, 16720, 16721, 16722, 16723, 16724, 16725, 16726, 16727, 16728
 16729, 16730, 16731, 16732, 16733, 16734, 16735, 16736, 16737, 16738, 16739, 16740, 16741, 16742, 16743, 16744
 16745, 16746, 16747, 16748, 16749, 16750, 16751, 16752, 16753, 16754, 16755, 16756, 16757, 16758, 16759, 16760
 16761, 16762, 16763, 16764, 16765, 16766, 16767, 16768, 16769, 16770, 16771, 16772, 16773, 16774, 16775, 16776
 16777, 16778, 16779, 16780, 16781, 16782, 16783, 16784, 16785, 16786, 16787, 16788, 16789, 16790, 16791, 16792
 16793, 16794, 16795, 16796, 16797, 16798, 16799, 16800
*Elset, elset=__PickedSurf142_S2, internal, instance=Bottom-1
    1,    2,    3,    4,    5,    6,    7,    8,    9,   10,   11,   12,   13,   14,   15,   16
   17,   18,   19,   20,   21,   22,   23,   24,   25,   26,   27,   28,   29,   30,   31,   32
   33,   34,   35,   36,   37,   38,   39,   40,   41,   42,   43,   44,   45,   46,   47,   48
   49,   50,   51,   52,   53,   54,   55,   56,   57,   58,   59,   60,   61,   62,   63,   64
   65,   66,   67,   68,   69,   70,   71,   72,   73,   74,   75,   76,   77,   78,   79,   80
   81,   82,   83,   84,   85,   86,   87,   88,   89,   90,   91,   92,   93,   94,   95,   96
   97,   98,   99,  100,  101,  102,  103,  104,  105,  106,  107,  108,  109,  110,  111,  112
  113,  114,  115,  116,  117,  118,  119,  120,  121,  122,  123,  124,  125,  126,  127,  128
  129,  130,  131,  132,  133,  134,  135,  136,  137,  138,  139,  140, 8401, 8402, 8403, 8404
 8405, 8406, 8407, 8408, 8409, 8410, 8411, 8412, 8413, 8414, 8415, 8416, 8417, 8418, 8419, 8420
 8421, 8422, 8423, 8424, 8425, 8426, 8427, 8428, 8429, 8430, 8431, 8432, 8433, 8434, 8435, 8436
 8437, 8438, 8439, 8440, 8441, 8442, 8443, 8444, 8445, 8446, 8447, 8448, 8449, 8450, 8451, 8452
 8453, 8454, 8455, 8456, 8457, 8458, 8459, 8460, 8461, 8462, 8463, 8464, 8465, 8466, 8467, 8468
 8469, 8470, 8471, 8472, 8473, 8474, 8475, 8476, 8477, 8478, 8479, 8480, 8481, 8482, 8483, 8484
 8485, 8486, 8487, 8488, 8489, 8490, 8491, 8492, 8493, 8494, 8495, 8496, 8497, 8498, 8499, 8500
 8501, 8502, 8503, 8504, 8505, 8506, 8507, 8508, 8509, 8510, 8511, 8512, 8513, 8514, 8515, 8516
 8517, 8518, 8519, 8520, 8521, 8522, 8523, 8524, 8525, 8526, 8527, 8528, 8529, 8530, 8531, 8532
 8533, 8534, 8535, 8536, 8537, 8538, 8539, 8540
*Surface, type=ELEMENT, name=_PickedSurf142, internal
__PickedSurf142_S1, S1
__PickedSurf142_S2, S2
*Elset, elset=__PickedSurf143_S2, internal, instance=Left-1, generate
 1,  8,  1
*Elset, elset=__PickedSurf143_S1, internal, instance=Right-1, generate
  9,  16,   1
*Surface, type=ELEMENT, name=_PickedSurf143, internal
__PickedSurf143_S2, S2
__PickedSurf143_S1, S1
*Elset, elset=__PickedSurf145_S6, internal, instance=Bottom-1, generate
  8401,  16794,      7
*Elset, elset=__PickedSurf145_S4, internal, instance=Bottom-1, generate
    7,  8400,     7
*Surface, type=ELEMENT, name=_PickedSurf145, internal
__PickedSurf145_S6, S6
__PickedSurf145_S4, S4
** Constraint: Constraint-1
*Tie, name=Constraint-1, adjust=yes
_PickedSurf124, _PickedSurf123
** Constraint: Constraint-2
*Tie, name=Constraint-2, adjust=yes
_PickedSurf143, _PickedSurf142
*Elset, elset=__Int-1_ssm_1_S6, internal, instance=Bottom-1, generate
  8401,  16794,      7
*Surface, type=ELEMENT, name=_Int-1_ssm_1, internal
__Int-1_ssm_1_S6, S6
*Elset, elset=__Int-1_ssm_2_S4, internal, instance=Bottom-1, generate
    7,  8400,     7
*Surface, type=ELEMENT, name=_Int-1_ssm_2, internal
__Int-1_ssm_2_S4, S4
*End Assembly
** 
** MATERIALS
** 
*Material, name=Material-1
*Elastic
207000., 0.3
*Plastic
 200.2,     0.
  246., 0.0235
  294., 0.0474
  374., 0.0935
  437., 0.1377
  480.,   0.18
** 
** INTERACTION PROPERTIES
** 
*Surface Interaction, name=IntProp-1
1.,
*Friction, slip tolerance=0.005
 0.62,
*Surface Behavior, pressure-overclosure=HARD
*Surface Smoothing, name=Int-1
_Int-1_ssm_1, , CIRCUMFERENTIAL, 0., -3.75474, 0.6, -1., -3.75474, 0.6
_Int-1_ssm_2, , CIRCUMFERENTIAL, 0., -3.75474, 0.6, -1., -3.75474, 0.6
** 
** INTERACTIONS
** 
** Interaction: Int-1
*Contact Pair, interaction=IntProp-1, type=SURFACE TO SURFACE, adjust=0.0, geometric correction=Int-1
_PickedSurf145, Up-1.RigidSurface_
** ----------------------------------------------------------------
** 
** STEP: Load
** 
*Step, name=Load, nlgeom=NO, inc=500
*Static
0.001, 0.1, 1e-09, 0.1
** 
** BOUNDARY CONDITIONS
** 
** Name: BC-Load Type: Displacement/Rotation
*Boundary
_PickedSet24, 3, 3
** Name: BC-SideWalls Type: Symmetry/Antisymmetry/Encastre
*Boundary
_PickedSet25, ENCASTRE
** Name: BC-Up Type: Displacement/Rotation
*Boundary
_PickedSet26, 1, 1
_PickedSet26, 4, 4
_PickedSet26, 5, 5
_PickedSet26, 6, 6
** 
** LOADS
** 
** Name: Load   Type: Concentrated force
*Cload
_PickedSet22, 2, -100.
** 
** OUTPUT REQUESTS
** 
*Restart, write, frequency=0
** 
** FIELD OUTPUT: F-Output-1
** 
*Output, field, variable=PRESELECT
** 
** HISTORY OUTPUT: H-Output-1
** 
*Output, history, variable=PRESELECT
*End Step
** ----------------------------------------------------------------
** 
** STEP: Displacement
** 
*Step, name=Displacement, nlgeom=NO, inc=500
*Static
0.003, 0.05, 5e-09, 0.05
** 
** BOUNDARY CONDITIONS
** 
** Name: BC-Displacement Type: Displacement/Rotation
*Boundary, op=NEW
_PickedSet23, 1, 1, 0.6
** Name: BC-Load Type: Displacement/Rotation
*Boundary, op=NEW
** Name: BC-SideWalls Type: Symmetry/Antisymmetry/Encastre
*Boundary, op=NEW
_PickedSet25, ENCASTRE
** Name: BC-Up Type: Displacement/Rotation
*Boundary, op=NEW
_PickedSet26, 3, 3
_PickedSet26, 4, 4
_PickedSet26, 5, 5
_PickedSet26, 6, 6
** 
** OUTPUT REQUESTS
** 
*Restart, write, frequency=0
** 
** FIELD OUTPUT: F-Output-1
** 
*Output, field, variable=PRESELECT
** 
** HISTORY OUTPUT: H-Output-1
** 
*Output, history, variable=PRESELECT
*End Step
